/*--------------------------------*- C++ -*----------------------------------*\
| =========                 |                                                 |
| \\      /  F ield         | OpenFOAM: The Open Source CFD Toolbox           |
|  \\    /   O peration     | Version:  2412                                  |
|   \\  /    A nd           | Website:  www.openfoam.com                      |
|    \\/     M anipulation  |                                                 |
\*---------------------------------------------------------------------------*/
FoamFile
{
    version     2.0;
    format      ascii;
    arch        "LSB;label=32;scalar=64";
    class       polyBoundaryMesh;
    location    "constant/polyMesh";
    object      boundary;
}
// * * * * * * * * * * * * * * * * * * * * * * * * * * * * * * * * * * * * * //


4
(
object
{
    type wall;
    nFaces 5284;
    startFace 813635;
}

inlet
{
    type patch;
    nFaces 468;
    startFace 818919;
}

outlet
{
    type patch;
    nFaces 468;
    startFace 819387;
}

sym
{
    type symmetry;
    nFaces 4028;
    startFace 819855;
}

)


// ************************************************************************* //
