/*--------------------------------*- C++ -*----------------------------------*\
| =========                 |                                                 |
| \\      /  F ield         | OpenFOAM: The Open Source CFD Toolbox           |
|  \\    /   O peration     | Version:  2.1.0                                 |
|   \\  /    A nd           | Web:      www.OpenFOAM.org                      |
|    \\/     M anipulation  |                                                 |
\*---------------------------------------------------------------------------*/
FoamFile
{
    version     2.0;
    format      ascii;
    class       dictionary;
    location    "system";
    object      fvSchemes;
}
// * * * * * * * * * * * * * * * * * * * * * * * * * * * * * * * * * * * * * //

ddtSchemes
{
    default         steadyState;
}

gradSchemes
{
    default         Gauss skewCorrected linear;
}

divSchemes
{
    div(phi,U)      Gauss skewCorrected upwind phi;
    default         Gauss skewCorrected linear;
}

laplacianSchemes
{
    default         Gauss skewCorrected linear corrected;
}

interpolationSchemes
{
    default         skewCorrected linear;
}

snGradSchemes
{
    default         corrected;
}


// ************************************************************************* //
